5ou3_ligand
 OpenBabel01242321033D

 29 32  0  0  1  0  0  0  0  0999 V2000
  133.3840  -13.3990   -4.8210 C   0  0  0  0  0  1  0  0  0  0  0  0
  133.9480  -14.7830   -4.5390 C   0  0  2  0  0  3  0  0  0  0  0  0
  132.9570  -15.8580   -4.6480 O   0  0  0  0  0  0  0  0  0  0  0  0
  131.7080  -15.8680   -3.9120 C   0  0  0  0  0  0  0  0  0  0  0  0
  131.4950  -16.8110   -2.9000 C   0  0  0  0  0  3  0  0  0  0  0  0
  130.2540  -16.8490   -2.1910 C   0  0  0  0  0  3  0  0  0  0  0  0
  129.2620  -15.9600   -2.5220 C   0  0  0  0  0  0  0  0  0  0  0  0
  129.4670  -15.0230   -3.5480 C   0  0  0  0  0  3  0  0  0  0  0  0
  130.6830  -14.9960   -4.2410 C   0  0  0  0  0  3  0  0  0  0  0  0
  127.8980  -15.9100   -1.8010 C   0  0  0  0  0  0  0  0  0  0  0  0
  127.3060  -16.8850   -1.0030 C   0  0  0  0  0  2  0  0  0  0  0  0
  126.1560  -16.4060   -0.6010 N   0  0  0  0  0  0  0  0  0  0  0  0
  125.9920  -15.1330   -1.1160 C   0  0  0  0  0  3  0  0  0  0  0  0
  127.0790  -14.8480   -1.8540 N   0  0  0  0  0  0  0  0  0  0  0  0
  134.6560  -14.8950   -3.1530 C   0  0  0  0  0  0  0  0  0  0  0  0
  135.7290  -15.4710   -3.0670 O   0  0  0  0  0  0  0  0  0  0  0  0
  134.0560  -14.3190   -1.9930 N   0  0  0  0  0  2  0  0  0  0  0  0
  134.6860  -14.4200   -0.7570 C   0  0  0  0  0  0  0  0  0  0  0  0
  134.5000  -13.5380    0.2570 N   0  0  0  0  0  0  0  0  0  0  0  0
  135.2360  -13.9290    1.2740 C   0  0  0  0  0  0  0  0  0  0  0  0
  135.9070  -15.1010    0.9270 C   0  0  0  0  0  3  0  0  0  0  0  0
  135.5560  -15.3870   -0.3320 N   0  0  0  0  0  0  0  0  0  0  0  0
  135.2840  -13.1670    2.6150 C   0  0  0  0  0  0  0  0  0  0  0  0
  135.0920  -11.7850    2.6160 C   0  0  0  0  0  3  0  0  0  0  0  0
  135.1250  -11.0800    3.8370 C   0  0  0  0  0  3  0  0  0  0  0  0
  135.3570  -11.7660    5.0140 C   0  0  0  0  0  0  0  0  0  0  0  0
  135.5580  -13.1440    5.0100 C   0  0  0  0  0  3  0  0  0  0  0  0
  135.5210  -13.8620    3.7810 C   0  0  0  0  0  3  0  0  0  0  0  0
  135.4140  -10.8400    6.6580 Br  0  0  0  0  0  0  0  0  0  0  0  0
  2  1  1  1  0  0  0
  2 15  1  0  0  0  0
  3  2  1  0  0  0  0
  3  4  1  0  0  0  0
  4  5  1  0  0  0  0
  5  6  2  0  0  0  0
  7  6  1  0  0  0  0
  7 10  1  0  0  0  0
  8  7  2  0  0  0  0
  9  4  2  0  0  0  0
  9  8  1  0  0  0  0
 10 11  1  0  0  0  0
 11 12  1  0  0  0  0
 13 12  2  0  0  0  0
 14 10  2  0  0  0  0
 14 13  1  0  0  0  0
 15 16  2  0  0  0  0
 15 17  1  0  0  0  0
 17 18  1  0  0  0  0
 18 22  2  0  0  0  0
 18 19  2  0  0  0  0
 19 20  1  0  0  0  0
 20 23  1  0  0  0  0
 21 20  2  0  0  0  0
 22 21  1  0  0  0  0
 23 24  2  0  0  0  0
 23 28  1  0  0  0  0
 24 25  1  0  0  0  0
 25 26  2  0  0  0  0
 26 29  1  0  0  0  0
 27 26  1  0  0  0  0
 28 27  2  0  0  0  0
M  END
$$$$
