3fi2_ligand
  PyMOL2.5          3D                             0

 36 39  0  0  0  0  0  0  0  0999 V2000
    5.1420   37.5900   17.4520 C   0  0  0  0  0  0  0  0  0  0  0  0
    9.3410   34.8370    9.9480 N   0  0  0  0  0  0  0  0  0  0  0  0
   14.5350   34.6280   10.6880 O   0  0  0  0  0  0  0  0  0  0  0  0
    1.0000   36.3070   11.3890 C   0  0  0  0  0  0  0  0  0  0  0  0
   15.0360   36.6770    9.4420 N   0  0  0  0  0  0  0  0  0  0  0  0
    6.3730   33.8010   15.6010 O   0  0  0  0  0  0  0  0  0  0  0  0
    1.6180   39.4260   14.2990 C   0  0  0  0  0  0  0  0  0  0  0  0
   12.8840   35.7870    9.5120 N   0  0  0  0  0  0  0  0  0  0  0  0
    4.0690   37.9350   16.6090 O   0  0  0  0  0  0  0  0  0  0  0  0
   15.5390   39.6020    6.4580 C   0  0  0  0  0  0  0  0  0  0  0  0
    5.7580   34.5010   13.4860 N   0  0  0  0  0  0  0  0  0  0  0  0
    1.2650   36.6160   12.7520 O   0  0  0  0  0  0  0  0  0  0  0  0
   16.4160   38.5370    6.4700 C   0  0  0  0  0  0  0  0  0  0  0  0
   10.1510   34.1070   10.9220 N   0  0  0  0  0  0  0  0  0  0  0  0
    1.6890   38.2570   15.0850 O   0  0  0  0  0  0  0  0  0  0  0  0
   14.4570   39.7050    7.4600 C   0  0  0  0  0  0  0  0  0  0  0  0
    9.6320   31.5020   13.6850 C   0  0  0  0  0  0  0  0  0  0  0  0
   16.2860   37.5390    7.4470 C   0  0  0  0  0  0  0  0  0  0  0  0
   14.3300   38.7460    8.4090 C   0  0  0  0  0  0  0  0  0  0  0  0
    8.4420   32.0250   14.3260 C   0  0  0  0  0  0  0  0  0  0  0  0
   10.2280   32.2300   12.4750 C   0  0  0  0  0  0  0  0  0  0  0  0
   10.2760   35.7580    9.2720 C   0  0  0  0  0  0  0  0  0  0  0  0
    8.3940   33.9290   12.6620 C   0  0  0  0  0  0  0  0  0  0  0  0
    4.9030   36.1580   15.0550 C   0  0  0  0  0  0  0  0  0  0  0  0
    3.4670   35.5080   13.1020 C   0  0  0  0  0  0  0  0  0  0  0  0
   11.5180   34.0280   10.4970 C   0  0  0  0  0  0  0  0  0  0  0  0
   14.1340   35.8730   10.2370 C   0  0  0  0  0  0  0  0  0  0  0  0
    6.6210   33.8680   14.4550 C   0  0  0  0  0  0  0  0  0  0  0  0
   15.2380   37.6570    8.4100 C   0  0  0  0  0  0  0  0  0  0  0  0
    4.6690   35.3750   13.9100 C   0  0  0  0  0  0  0  0  0  0  0  0
   11.6530   35.0570    9.3200 C   0  0  0  0  0  0  0  0  0  0  0  0
    7.8470   33.2050   13.8260 C   0  0  0  0  0  0  0  0  0  0  0  0
    9.6130   33.3790   12.0340 C   0  0  0  0  0  0  0  0  0  0  0  0
    3.8280   37.1620   15.4780 C   0  0  0  0  0  0  0  0  0  0  0  0
    2.4280   36.4850   13.5320 C   0  0  0  0  0  0  0  0  0  0  0  0
    2.6410   37.2960   14.7200 C   0  0  0  0  0  0  0  0  0  0  0  0
  1  9  1  0  0  0  0
  2 14  1  0  0  0  0
  2 22  1  0  0  0  0
  3 27  1  0  0  0  0
  5 27  1  0  0  0  0
  5 29  1  0  0  0  0
  7 15  1  0  0  0  0
  8 31  1  0  0  0  0
  4 12  1  0  0  0  0
 12 35  1  0  0  0  0
 10 13  4  0  0  0  0
 13 18  4  0  0  0  0
 10 16  4  0  0  0  0
 16 19  4  0  0  0  0
 17 20  4  0  0  0  0
 17 21  4  0  0  0  0
 18 29  4  0  0  0  0
 20 32  4  0  0  0  0
 21 33  4  0  0  0  0
 22 31  1  0  0  0  0
 25 30  4  0  0  0  0
 25 35  4  0  0  0  0
 14 26  1  0  0  0  0
 26 31  1  0  0  0  0
  8 27  1  0  0  0  0
  6 28  2  0  0  0  0
 11 28  1  0  0  0  0
 28 32  1  0  0  0  0
 19 29  4  0  0  0  0
 11 30  1  0  0  0  0
 24 30  4  0  0  0  0
 23 32  4  0  0  0  0
 14 33  1  0  0  0  0
 23 33  4  0  0  0  0
  9 34  1  0  0  0  0
 24 34  4  0  0  0  0
 34 36  4  0  0  0  0
 35 36  4  0  0  0  0
 15 36  1  0  0  0  0
M  END
$$$$
